LAMMPS (2 Jul 2021)
# NaCl test problem for embedded atom method (EIM) potential

units		metal

boundary	p p p

box tilt large

atom_style      atomic

read_data       data.gan
Reading data file ...
  triclinic box = (0.0000000 0.0000000 0.0000000) to (9.5700002 8.2878632 15.567000) with tilt (-4.7850001 0.0000000 0.0000000)
  reading atoms ...
  108 atoms

pair_style      tersoff
pair_coeff      * * GaN.tersoff  Ga N
Reading tersoff potential file GaN.tersoff with DATE: 2007-10-22

variable        t equal 2000

neighbor	0.3 bin

timestep        0.001

thermo_style    custom step etotal temp vol press
thermo          1000

velocity        all create $t 3627941 dist gaussian mom yes
velocity        all create 2000 3627941 dist gaussian mom yes
velocity          all scale $t
velocity          all scale 2000

fix             int all nvt temp $t $t 0.5  #between 0.2-2.0
fix             int all nvt temp 2000 $t 0.5
fix             int all nvt temp 2000 2000 0.5

run             10000
  update every 1 steps, delay 10 steps, check yes
Step TotEng Temp Volume Press
0   -461.30525         2000    1234.6943    14400.541
Averages over the last 6 of 11 rows, steps 5000 to 10000:
TotEng Temp Volume Press
-429.223 2086.16 1234.69 44872.9
Loop time of 5.15814 on 1 procs for 10000 steps with 108 atoms

dump            dynaphopy all custom 1 gan_2000_test.lammpstrj vx vy vz
dump_modify     dynaphopy sort id

run             50000
Step TotEng Temp Volume Press
10000   -424.57293    2166.1891    1234.6943    41064.508
Averages over the last 26 of 51 rows, steps 35000 to 60000:
TotEng Temp Volume Press
-431.353 2075.32 1234.69 34143.1
Loop time of 30.9165 on 1 procs for 50000 steps with 108 atoms
